#
# Generated by PyRED version JAN-2019
#     http://q4md-forcefieldtools.org
#
@<TRIPOS>MOLECULE
F00
     7     6     1     0     1
SMALL
USER_CHARGES
@<TRIPOS>ATOM
   1 C2     0.000000   0.613218   0.000000 CT   1   F00  0.3474  0.0000 ****
   2 H4    -0.120691   1.227224  -0.879818 HP   1   F00  0.0339  0.0000 ****
   3 H5    -0.120691   1.227224   0.879818 HP   1   F00  0.0339  0.0000 ****
   4 N1    -1.172838  -0.352838   0.000000 N3   1   F00 -0.4022  0.0000 ****
   5 H6    -2.060388   0.132186   0.000000 H    1   F00  0.3290  0.0000 ****
   6 H7    -1.156610  -0.952836  -0.813961 H    1   F00  0.3290  0.0000 ****
   7 H8    -1.156610  -0.952836   0.813961 H    1   F00  0.3290  0.0000 ****
@<TRIPOS>BOND
    1     1     2 1
    2     1     3 1
    3     1     4 1
    4     4     5 1
    5     4     6 1
    6     4     7 1
@<TRIPOS>SUBSTRUCTURE
      1 F00               1 ****               0 ****  ****
@<TRIPOS>HEADTAIL
C2 1
0 0
@<TRIPOS>RESIDUECONNECT
1 C2 0 0 0 0 0
