#
# Generated by PyRED version JAN-2019
#     http://q4md-forcefieldtools.org
#
@<TRIPOS>MOLECULE
F00
     7     6     1     0     1
SMALL
USER_CHARGES
@<TRIPOS>ATOM
   1 C2     1.296836   0.229897   0.000000 CT   1   F00 -0.1086  0.0000 ****
   2 H4     1.602730   0.789205  -0.877183 H1   1   F00  0.0315  0.0000 ****
   3 H5     1.602730   0.789205   0.877183 H1   1   F00  0.0315  0.0000 ****
   4 S1    -0.496151   0.215719   0.000000 S    1   F00  1.1306  0.0000 ****
   5 O1    -0.860692   1.623998   0.000000 O    1   F00 -0.6950  0.0000 ****
   6 O2    -0.860692  -0.490716  -1.219826 O    1   F00 -0.6950  0.0000 ****
   7 O3    -0.860692  -0.490716   1.219826 O    1   F00 -0.6950  0.0000 ****
@<TRIPOS>BOND
    1     1     2 1
    2     1     3 1
    3     1     4 1
    4     4     5 1
    5     4     6 1
    6     4     7 1
@<TRIPOS>SUBSTRUCTURE
      1 F00               1 ****               0 ****  ****
@<TRIPOS>HEADTAIL
C2 1
0 0
@<TRIPOS>RESIDUECONNECT
1 C2 0 0 0 0 0
