#
# Generated by PyRED version JAN-2019
#     http://q4md-forcefieldtools.org
#
@<TRIPOS>MOLECULE
F00
    21    21     1     0     1
SMALL
USER_CHARGES
@<TRIPOS>ATOM
   1 C1    -4.840435   0.584351   0.088729 CT   1   F00 -0.1476  0.0000 ****
   2 H1    -4.902386   1.097594   1.046151 HC   1   F00  0.0512  0.0000 ****
   3 H2    -4.855394   1.358563  -0.674573 HC   1   F00  0.0512  0.0000 ****
   4 C2    -3.499278  -0.142385   0.034655 C    1   F00  0.6926  0.0000 ****
   5 O1    -3.432971  -1.340279   0.034402 O    1   F00 -0.5423  0.0000 ****
   6 N1    -2.437536   0.698910   0.002120 N    1   F00 -0.5232  0.0000 ****
   7 H3    -2.655172   1.669088   0.006902 H    1   F00  0.2523  0.0000 ****
   8 C4     1.722187   0.070988  -0.035707 CA   1   F00 -0.0509  0.0000 ****
   9 S1     3.503525  -0.147584   0.007734 S    1   F00  1.1661  0.0000 ****
  10 O2     3.721998  -1.430694  -0.633596 O    1   F00 -0.6840  0.0000 ****
  11 O3     3.839714  -0.127957   1.419114 O    1   F00 -0.6840  0.0000 ****
  12 O4     4.014365   0.992388  -0.732539 O    1   F00 -0.6840  0.0000 ****
  13 C5     1.176062   1.345188  -0.038822 CA   1   F00 -0.1295  0.0000 ****
  14 H4     1.831572   2.194544  -0.066893 HA   1   F00  0.1488  0.0000 ****
  15 C6    -0.193866   1.518820  -0.024701 CA   1   F00 -0.1739  0.0000 ****
  16 H5    -0.604555   2.516278  -0.030473 HA   1   F00  0.1243  0.0000 ****
  17 C7    -1.047410   0.419867  -0.009597 CA   1   F00  0.1632  0.0000 ****
  18 C8    -0.511423  -0.859608  -0.014883 CA   1   F00 -0.1739  0.0000 ****
  19 H6    -1.154672  -1.713895  -0.012463 HA   1   F00  0.1243  0.0000 ****
  20 C9     0.868162  -1.017198  -0.028306 CA   1   F00 -0.1295  0.0000 ****
  21 H7     1.290114  -2.003968  -0.047008 HA   1   F00  0.1488  0.0000 ****
@<TRIPOS>BOND
    1     1     2 1
    2     1     3 1
    3     1     4 1
    4     4     5 1
    5     4     6 1
    6     6     7 1
    7     6    17 1
    8     8     9 1
    9     8    13 1
   10     8    20 1
   11     9    10 1
   12     9    11 1
   13     9    12 1
   14    13    14 1
   15    13    15 1
   16    15    16 1
   17    15    17 1
   18    17    18 1
   19    18    19 1
   20    18    20 1
   21    20    21 1
@<TRIPOS>SUBSTRUCTURE
      1 F00               1 ****               0 ****  ****
@<TRIPOS>HEADTAIL
C1 1
0 0
@<TRIPOS>RESIDUECONNECT
1 C1 0 0 0 0 0
