#
# Generated by PyRED version JAN-2019
#     http://q4md-forcefieldtools.org
#
@<TRIPOS>MOLECULE
F00
    21    21     1     0     1
SMALL
USER_CHARGES
@<TRIPOS>ATOM
   1 C1    -4.816889  -0.148108   0.246632 CT   1   F00  0.1127  0.0000 ****
   2 H1    -5.164110   0.494758  -0.549066 H1   1   F00  0.0474  0.0000 ****
   3 H2    -5.044484   0.358813   1.182110 H1   1   F00  0.0474  0.0000 ****
   4 N1    -3.389115  -0.322588   0.085515 N    1   F00 -0.6184  0.0000 ****
   5 H3    -2.976236  -1.108110   0.534244 H    1   F00  0.3017  0.0000 ****
   6 C3    -2.577112   0.747587  -0.152219 C    1   F00  0.6794  0.0000 ****
   7 O1    -3.031561   1.845542  -0.349829 O    1   F00 -0.5788  0.0000 ****
   8 C4     1.646271   0.043958  -0.065239 CA   1   F00 -0.0446  0.0000 ****
   9 S1     3.415594  -0.256292   0.069706 S    1   F00  1.1477  0.0000 ****
  10 O2     3.664231  -1.324569  -0.879116 O    1   F00 -0.6730  0.0000 ****
  11 O3     4.019335   1.014831  -0.278209 O    1   F00 -0.6730  0.0000 ****
  12 O4     3.597620  -0.641366   1.455631 O    1   F00 -0.6730  0.0000 ****
  13 C5     1.126023   1.307067   0.176025 CA   1   F00 -0.0909  0.0000 ****
  14 H4     1.800589   2.114531   0.386490 HA   1   F00  0.1328  0.0000 ****
  15 C6    -0.240184   1.519664   0.128973 CA   1   F00 -0.1447  0.0000 ****
  16 H5    -0.648176   2.497035   0.306690 HA   1   F00  0.1095  0.0000 ****
  17 C7    -1.107745   0.469545  -0.146863 CA   1   F00 -0.0889  0.0000 ****
  18 C8    -0.578749  -0.791390  -0.410217 CA   1   F00 -0.1447  0.0000 ****
  19 H6    -1.225641  -1.608067  -0.679241 HA   1   F00  0.1095  0.0000 ****
  20 C9     0.787572  -1.000662  -0.374595 CA   1   F00 -0.0909  0.0000 ****
  21 H7     1.201796  -1.964300  -0.600713 HA   1   F00  0.1328  0.0000 ****
@<TRIPOS>BOND
    1     1     2 1
    2     1     3 1
    3     1     4 1
    4     4     5 1
    5     4     6 1
    6     6     7 1
    7     6    17 1
    8     8     9 1
    9     8    13 1
   10     8    20 1
   11     9    10 1
   12     9    11 1
   13     9    12 1
   14    13    14 1
   15    13    15 1
   16    15    16 1
   17    15    17 1
   18    17    18 1
   19    18    19 1
   20    18    20 1
   21    20    21 1
@<TRIPOS>SUBSTRUCTURE
      1 F00               1 ****               0 ****  ****
@<TRIPOS>HEADTAIL
C1 1
0 0
@<TRIPOS>RESIDUECONNECT
1 C1 0 0 0 0 0
