#
# Generated by PyRED version JAN-2019
#     http://q4md-forcefieldtools.org
#
@<TRIPOS>MOLECULE
F00
    51    51     1     0     1
SMALL
USER_CHARGES
@<TRIPOS>ATOM
   1 C1    -6.408620   1.045693   0.253149 CT   1   F00  0.0138  0.0000 ****
   2 H1    -6.650393   1.450556  -0.727589 HC   1   F00  0.0040  0.0000 ****
   3 H2    -5.751278   1.768086   0.729000 HC   1   F00  0.0040  0.0000 ****
   4 C3    -5.652224  -0.254190   0.026250 C    1   F00  0.6017  0.0000 ****
   5 O1    -6.170713  -1.331303   0.150328 O    1   F00 -0.5838  0.0000 ****
   6 N1    -4.358332  -0.097693  -0.337585 N    1   F00 -0.4704  0.0000 ****
   7 H3    -4.001319   0.816612  -0.495611 H    1   F00  0.2648  0.0000 ****
   8 C4    -3.502692  -1.196470  -0.714547 CT   1   F00 -0.0655  0.0000 ****
   9 H4    -3.942694  -2.104370  -0.331673 H1   1   F00  0.0958  0.0000 ****
  10 H5    -3.445630  -1.281346  -1.797487 H1   1   F00  0.0958  0.0000 ****
  11 C5    -2.101359  -1.002034  -0.150844 CT   1   F00  0.1604  0.0000 ****
  12 H6    -2.149721  -1.001768   0.934371 H1   1   F00  0.0559  0.0000 ****
  13 C6    -1.175829  -2.121874  -0.607309 CT   1   F00  0.1265  0.0000 ****
  14 H7    -1.661438  -3.087261  -0.470735 H1   1   F00  0.0286  0.0000 ****
  15 H8    -0.970920  -1.994468  -1.667667 H1   1   F00  0.0286  0.0000 ****
  16 O2    -1.649852   0.251109  -0.609020 OS   1   F00 -0.4508  0.0000 ****
  17 O3     0.007488  -2.073435   0.130831 OS   1   F00 -0.3865  0.0000 ****
  18 C7    -0.723967   0.933655   0.197197 CT   1   F00  0.2944  0.0000 ****
  19 H13   -1.203788   1.292552   1.104751 H1   1   F00 -0.0125  0.0000 ****
  20 H14    0.094679   0.290178   0.478768 H1   1   F00 -0.0125  0.0000 ****
  21 C8     1.081783  -2.797776  -0.395972 CT   1   F00  0.1358  0.0000 ****
  22 H9     0.843704  -3.856914  -0.462970 H1   1   F00  0.0386  0.0000 ****
  23 H10    1.326593  -2.445499  -1.394827 H1   1   F00  0.0386  0.0000 ****
  24 C9     2.266970  -2.567353   0.520654 CT   1   F00  0.1965  0.0000 ****
  25 H11    2.384999  -1.506702   0.685439 H1   1   F00  0.0208  0.0000 ****
  26 H12    2.095552  -3.043515   1.483640 H1   1   F00  0.0208  0.0000 ****
  27 O4     3.395817  -3.114401  -0.103838 OS   1   F00 -0.4664  0.0000 ****
  28 C10   -0.186153   2.098750  -0.610482 CT   1   F00  0.1278  0.0000 ****
  29 H15    0.168213   1.735259  -1.571776 H1   1   F00  0.0401  0.0000 ****
  30 H16   -0.967396   2.833063  -0.799157 H1   1   F00  0.0401  0.0000 ****
  31 O5     0.862461   2.657471   0.122656 OS   1   F00 -0.4072  0.0000 ****
  32 C11    1.534626   3.720665  -0.487686 CT   1   F00  0.1068  0.0000 ****
  33 H21    1.690880   3.517951  -1.544310 H1   1   F00  0.0268  0.0000 ****
  34 H22    0.945313   4.633444  -0.402288 H1   1   F00  0.0268  0.0000 ****
  35 C12    4.633721  -2.836600   0.485913 CT   1   F00  0.2636  0.0000 ****
  36 H17    5.292668  -3.654454   0.217280 H1   1   F00 -0.0037  0.0000 ****
  37 H18    4.552563  -2.810880   1.569495 H1   1   F00 -0.0037  0.0000 ****
  38 C13    5.244156  -1.539729  -0.012887 CT   1   F00  0.1143  0.0000 ****
  39 H19    6.297040  -1.499599   0.265752 H1   1   F00  0.0245  0.0000 ****
  40 H20    5.182124  -1.518617  -1.098196 H1   1   F00  0.0245  0.0000 ****
  41 O6     4.558020  -0.455385   0.539810 OS   1   F00 -0.4009  0.0000 ****
  42 C14    4.722605   0.769284  -0.112778 CT   1   F00  0.1143  0.0000 ****
  43 H25    5.760411   1.094135  -0.082975 H1   1   F00  0.0498  0.0000 ****
  44 H26    4.427027   0.689815  -1.155931 H1   1   F00  0.0498  0.0000 ****
  45 C15    2.885074   3.921308   0.175678 CT   1   F00  0.2652  0.0000 ****
  46 H23    3.293444   4.869602  -0.154825 H1   1   F00 -0.0037  0.0000 ****
  47 H24    2.760390   3.965619   1.254555 H1   1   F00 -0.0037  0.0000 ****
  48 O7     3.816488   2.942061  -0.183448 OS   1   F00 -0.4629  0.0000 ****
  49 C16    3.822756   1.769885   0.585309 CT   1   F00  0.1706  0.0000 ****
  50 H27    4.192108   1.974072   1.587953 H1   1   F00  0.0319  0.0000 ****
  51 H28    2.830837   1.351509   0.670533 H1   1   F00  0.0319  0.0000 ****
@<TRIPOS>BOND
    1     1     2 1
    2     1     3 1
    3     1     4 1
    4     4     5 1
    5     4     6 1
    6     6     7 1
    7     6     8 1
    8     8     9 1
    9     8    10 1
   10     8    11 1
   11    11    12 1
   12    11    13 1
   13    11    16 1
   14    13    14 1
   15    13    15 1
   16    13    17 1
   17    16    18 1
   18    17    21 1
   19    18    19 1
   20    18    20 1
   21    18    28 1
   22    21    22 1
   23    21    23 1
   24    21    24 1
   25    24    25 1
   26    24    26 1
   27    24    27 1
   28    27    35 1
   29    28    29 1
   30    28    30 1
   31    28    31 1
   32    31    32 1
   33    32    33 1
   34    32    34 1
   35    32    45 1
   36    35    36 1
   37    35    37 1
   38    35    38 1
   39    38    39 1
   40    38    40 1
   41    38    41 1
   42    41    42 1
   43    42    43 1
   44    42    44 1
   45    42    49 1
   46    45    46 1
   47    45    47 1
   48    45    48 1
   49    48    49 1
   50    49    50 1
   51    49    51 1
@<TRIPOS>SUBSTRUCTURE
      1 F00               1 ****               0 ****  ****
@<TRIPOS>HEADTAIL
C1 1
0 0
@<TRIPOS>RESIDUECONNECT
1 C1 0 0 0 0 0
