#
# Generated by PyRED version JAN-2019
#     http://q4md-forcefieldtools.org
#
@<TRIPOS>MOLECULE
F00
     8     7     1     0     1
SMALL
USER_CHARGES
@<TRIPOS>ATOM
   1 C1    -0.488837   0.506072   0.000015 CT   1   F00  0.1748  0.0000 ****
   2 H1    -0.383182   1.144128  -0.877386 H1   1   F00  0.0146  0.0000 ****
   3 H2    -0.383218   1.144117   0.877429 H1   1   F00  0.0146  0.0000 ****
   4 O1     0.503179  -0.476728   0.000030 OS   1   F00 -0.3757  0.0000 ****
   5 C3     1.801547   0.022471  -0.000018 CT   1   F00  0.0058  0.0000 ****
   6 H3     2.477430  -0.821788   0.000004 H1   1   F00  0.0553  0.0000 ****
   7 H4     1.996417   0.628844  -0.883062 H1   1   F00  0.0553  0.0000 ****
   8 H5     1.996455   0.628920   0.882966 H1   1   F00  0.0553  0.0000 ****
@<TRIPOS>BOND
    1     1     2 1
    2     1     3 1
    3     1     4 1
    4     4     5 1
    5     5     6 1
    6     5     7 1
    7     5     8 1
@<TRIPOS>SUBSTRUCTURE
      1 F00               1 ****               0 ****  ****
@<TRIPOS>HEADTAIL
C1 1
0 0
@<TRIPOS>RESIDUECONNECT
1 C1 0 0 0 0 0
