#
# Generated by PyRED version JAN-2019
#     http://q4md-forcefieldtools.org
#
@<TRIPOS>MOLECULE
F00
    16    15     1     0     1
SMALL
USER_CHARGES
@<TRIPOS>ATOM
   1 C1     1.154077   0.268908   0.000000 CT   1   F00  0.2220  0.0000 ****
   2 H1     1.425709   0.842515   0.874942 HP   1   F00  0.0393  0.0000 ****
   3 H2     1.425709   0.842515  -0.874942 HP   1   F00  0.0393  0.0000 ****
   4 N1    -0.362556   0.210538   0.000000 N3   1   F00  0.0892  0.0000 ****
   5 C2    -0.874853   1.616900   0.000000 CT   1   F00 -0.1800  0.0000 ****
   6 H3    -1.954036   1.599836   0.000000 HP   1   F00  0.1278  0.0000 ****
   7 H4    -0.517249   2.123453   0.883450 HP   1   F00  0.1278  0.0000 ****
   8 H5    -0.517249   2.123453  -0.883450 HP   1   F00  0.1278  0.0000 ****
   9 C3    -0.874853  -0.484769  -1.220320 CT   1   F00 -0.1800  0.0000 ****
  10 H6    -1.952363  -0.420011  -1.229913 HP   1   F00  0.1278  0.0000 ****
  11 H7    -0.471811  -0.000914  -2.097365 HP   1   F00  0.1278  0.0000 ****
  12 H8    -0.577537  -1.519993  -1.199933 HP   1   F00  0.1278  0.0000 ****
  13 C4    -0.874853  -0.484769   1.220320 CT   1   F00 -0.1800  0.0000 ****
  14 H9    -1.952363  -0.420011   1.229913 HP   1   F00  0.1278  0.0000 ****
  15 H10   -0.577537  -1.519993   1.199933 HP   1   F00  0.1278  0.0000 ****
  16 H11   -0.471811  -0.000914   2.097365 HP   1   F00  0.1278  0.0000 ****
@<TRIPOS>BOND
    1     1     2 1
    2     1     3 1
    3     1     4 1
    4     4     5 1
    5     4     9 1
    6     4    13 1
    7     5     6 1
    8     5     7 1
    9     5     8 1
   10     9    10 1
   11     9    11 1
   12     9    12 1
   13    13    14 1
   14    13    15 1
   15    13    16 1
@<TRIPOS>SUBSTRUCTURE
      1 F00               1 ****               0 ****  ****
@<TRIPOS>HEADTAIL
C1 1
0 0
@<TRIPOS>RESIDUECONNECT
1 C1 0 0 0 0 0
