#
# Generated by PyRED version JAN-2019
#     http://q4md-forcefieldtools.org
#
@<TRIPOS>MOLECULE
F02
     6     5     1     0     1
SMALL
USER_CHARGES
@<TRIPOS>ATOM
   1 C1     0.565597  -0.514896   0.000001 CT   1   F02 -0.0441  0.0000 ****
   2 H1     0.463499  -1.159916  -0.870358 HC   1   F02  0.0216  0.0000 ****
   3 H2     0.463496  -1.159927   0.870351 HC   1   F02  0.0216  0.0000 ****
   4 C2    -0.565597   0.514897   0.000001 CT   1   F02 -0.0407  0.0000 ****
   5 H3    -0.463500   1.159919  -0.870356 HC   1   F02  0.0208  0.0000 ****
   6 H4    -0.463499   1.159929   0.870351 HC   1   F02  0.0208  0.0000 ****
@<TRIPOS>BOND
    1     1     2 1
    2     1     3 1
    3     1     4 1
    4     4     5 1
    5     4     6 1
@<TRIPOS>SUBSTRUCTURE
      1 F02               1 ****               0 ****  ****
@<TRIPOS>HEADTAIL
C2 1
C1 1
@<TRIPOS>RESIDUECONNECT
1 C2 C1 0 0 0 0
