#
# Generated by PyRED version JAN-2019
#     http://q4md-forcefieldtools.org
#
@<TRIPOS>MOLECULE
F02
    10     9     1     0     1
SMALL
USER_CHARGES
@<TRIPOS>ATOM
   1 C1    -1.690140  -0.770751  -0.205450 CT   1   F02  0.0265  0.0000 ****
   2 H1    -1.457270  -1.677076   0.346785 HC   1   F02 -0.0014  0.0000 ****
   3 H2    -1.770822  -1.060758  -1.251404 HC   1   F02 -0.0014  0.0000 ****
   4 C2    -0.524313   0.200348  -0.096408 C    1   F02  0.6120  0.0000 ****
   5 O1    -0.679949   1.385628   0.017255 O    1   F02 -0.5835  0.0000 ****
   6 N1     0.702085  -0.374233  -0.143941 N    1   F02 -0.5516  0.0000 ****
   7 H3     0.758042  -1.344065  -0.358510 H    1   F02  0.2892  0.0000 ****
   8 C4     1.925581   0.403254  -0.200372 CT   1   F02  0.0840  0.0000 ****
   9 H4     2.113570   0.747218  -1.214454 H1   1   F02  0.0631  0.0000 ****
  10 H5     1.780907   1.281210   0.411092 H1   1   F02  0.0631  0.0000 ****
@<TRIPOS>BOND
    1     1     2 1
    2     1     3 1
    3     1     4 1
    4     4     5 1
    5     4     6 1
    6     6     7 1
    7     6     8 1
    8     8     9 1
    9     8    10 1
@<TRIPOS>SUBSTRUCTURE
      1 F02               1 ****               0 ****  ****
@<TRIPOS>HEADTAIL
C4 1
C1 1
@<TRIPOS>RESIDUECONNECT
1 C4 C1 0 0 0 0
