#
# Generated by PyRED version JAN-2019
#     http://q4md-forcefieldtools.org
#
@<TRIPOS>MOLECULE
F02
    12    11     1     0     1
SMALL
USER_CHARGES
@<TRIPOS>ATOM
   1 C1    -2.430676   0.271187   0.206814 CT   1   F02  0.1491  0.0000 ****
   2 H1    -2.459817   1.146873  -0.423611 H1   1   F02  0.0498  0.0000 ****
   3 H2    -2.528926   0.615073   1.233731 H1   1   F02  0.0498  0.0000 ****
   4 N1    -1.149353  -0.380053  -0.006085 N    1   F02 -0.7443  0.0000 ****
   5 H3    -1.068440  -1.300210   0.368434 H    1   F02  0.3381  0.0000 ****
   6 C3    -0.000000   0.367382  -0.000001 C    1   F02  0.9642  0.0000 ****
   7 O1    -0.000001   1.569048   0.000003 O    1   F02 -0.6493  0.0000 ****
   8 N2     1.149354  -0.380054   0.006080 N    1   F02 -0.7443  0.0000 ****
   9 H4     1.068440  -1.300210  -0.368444 H    1   F02  0.3381  0.0000 ****
  10 C4     2.430677   0.271185  -0.206819 CT   1   F02  0.1492  0.0000 ****
  11 H5     2.528932   0.615064  -1.233738 H1   1   F02  0.0498  0.0000 ****
  12 H6     2.459812   1.146876   0.423600 H1   1   F02  0.0498  0.0000 ****
@<TRIPOS>BOND
    1     1     2 1
    2     1     3 1
    3     1     4 1
    4     4     5 1
    5     4     6 1
    6     6     7 1
    7     6     8 1
    8     8     9 1
    9     8    10 1
   10    10    11 1
   11    10    12 1
@<TRIPOS>SUBSTRUCTURE
      1 F02               1 ****               0 ****  ****
@<TRIPOS>HEADTAIL
C1 1
C4 1
@<TRIPOS>RESIDUECONNECT
1 C1 C4 0 0 0 0
