#
# Generated by PyRED version JAN-2019
#     http://q4md-forcefieldtools.org
#
@<TRIPOS>MOLECULE
F02
     7     6     1     0     1
SMALL
USER_CHARGES
@<TRIPOS>ATOM
   1 C1    -1.175559   0.522657   0.000012 CT   1   F02  0.1521  0.0000 ****
   2 H1    -1.206567   1.168617  -0.877228 H1   1   F02  0.0188  0.0000 ****
   3 H2    -1.206586   1.168598   0.877266 H1   1   F02  0.0188  0.0000 ****
   4 O1    -0.000001  -0.230649   0.000017 OS   1   F02 -0.3793  0.0000 ****
   5 C3     1.175554   0.522659  -0.000014 CT   1   F02  0.1520  0.0000 ****
   6 H3     1.206550   1.168588  -0.877276 H1   1   F02  0.0188  0.0000 ****
   7 H4     1.206566   1.168636   0.877211 H1   1   F02  0.0188  0.0000 ****
@<TRIPOS>BOND
    1     1     2 1
    2     1     3 1
    3     1     4 1
    4     4     5 1
    5     5     6 1
    6     5     7 1
@<TRIPOS>SUBSTRUCTURE
      1 F02               1 ****               0 ****  ****
@<TRIPOS>HEADTAIL
C3 1
C1 1
@<TRIPOS>RESIDUECONNECT
1 C3 C1 0 0 0 0
