#
# Generated by PyRED version JAN-2019
#     http://q4md-forcefieldtools.org
#
@<TRIPOS>MOLECULE
F02
    14    13     1     0     1
SMALL
USER_CHARGES
@<TRIPOS>ATOM
   1 C1     2.922162  -0.552673   0.000007 CT   1   F02  0.1699  0.0000 ****
   2 H1     2.936409  -1.198278  -0.877313 H1   1   F02  0.0204  0.0000 ****
   3 H2     2.936412  -1.198259   0.877342 H1   1   F02  0.0204  0.0000 ****
   4 O1     1.763195   0.228213   0.000001 OS   1   F02 -0.4072  0.0000 ****
   5 C3     0.571898  -0.496282  -0.000001 CT   1   F02  0.1220  0.0000 ****
   6 H3     0.503085  -1.134096  -0.878847 H1   1   F02  0.0388  0.0000 ****
   7 H4     0.503082  -1.134096   0.878844 H1   1   F02  0.0388  0.0000 ****
   8 C4    -0.571895   0.496282  -0.000004 CT   1   F02  0.1121  0.0000 ****
   9 H5    -0.503079   1.134094   0.878843 H1   1   F02  0.0407  0.0000 ****
  10 H6    -0.503074   1.134096  -0.878849 H1   1   F02  0.0407  0.0000 ****
  11 O2    -1.763195  -0.228215  -0.000008 OS   1   F02 -0.4096  0.0000 ****
  12 C5    -2.922162   0.552674   0.000008 CT   1   F02  0.1744  0.0000 ****
  13 H7    -2.936405   1.198256   0.877345 H1   1   F02  0.0193  0.0000 ****
  14 H8    -2.936411   1.198283  -0.877309 H1   1   F02  0.0193  0.0000 ****
@<TRIPOS>BOND
    1     1     2 1
    2     1     3 1
    3     1     4 1
    4     4     5 1
    5     5     6 1
    6     5     7 1
    7     5     8 1
    8     8     9 1
    9     8    10 1
   10     8    11 1
   11    11    12 1
   12    12    13 1
   13    12    14 1
@<TRIPOS>SUBSTRUCTURE
      1 F02               1 ****               0 ****  ****
@<TRIPOS>HEADTAIL
C1 1
C5 1
@<TRIPOS>RESIDUECONNECT
1 C1 C5 0 0 0 0
