#
# Generated by PyRED version JAN-2019
#     http://q4md-forcefieldtools.org
#
@<TRIPOS>MOLECULE
F02
    21    20     1     0     1
SMALL
USER_CHARGES
@<TRIPOS>ATOM
   1 C1    -4.692301   0.502431  -0.000036 CT   1   F02  0.1800  0.0000 ****
   2 H1    -4.721702   1.147394  -0.877421 H1   1   F02  0.0179  0.0000 ****
   3 H2    -4.721763   1.147421   0.877328 H1   1   F02  0.0179  0.0000 ****
   4 O1    -3.514885  -0.250726   0.000017 OS   1   F02 -0.4142  0.0000 ****
   5 C3    -2.341304   0.501390   0.000004 CT   1   F02  0.1208  0.0000 ****
   6 H3    -2.287110   1.140571  -0.878937 H1   1   F02  0.0378  0.0000 ****
   7 H4    -2.287139   1.140651   0.878889 H1   1   F02  0.0378  0.0000 ****
   8 C4    -1.175415  -0.465070   0.000068 CT   1   F02  0.1314  0.0000 ****
   9 H5    -1.227821  -1.103503   0.879037 H1   1   F02  0.0413  0.0000 ****
  10 H6    -1.227785  -1.103575  -0.878852 H1   1   F02  0.0413  0.0000 ****
  11 O2    -0.000002   0.287159   0.000061 OS   1   F02 -0.4242  0.0000 ****
  12 C5     1.175413  -0.465056   0.000030 CT   1   F02  0.1314  0.0000 ****
  13 H7     1.227813  -1.103544   0.878960 H1   1   F02  0.0413  0.0000 ****
  14 H8     1.227790  -1.103505  -0.878929 H1   1   F02  0.0413  0.0000 ****
  15 C6     2.341303   0.501405   0.000038 CT   1   F02  0.1208  0.0000 ****
  16 H9     2.287118   1.140643  -0.878862 H1   1   F02  0.0378  0.0000 ****
  17 H10    2.287136   1.140608   0.878963 H1   1   F02  0.0378  0.0000 ****
  18 O3     3.514883  -0.250722   0.000011 OS   1   F02 -0.4142  0.0000 ****
  19 C7     4.692303   0.502428  -0.000041 CT   1   F02  0.1800  0.0000 ****
  20 H11    4.721713   1.147389  -0.877429 H1   1   F02  0.0180  0.0000 ****
  21 H12    4.721772   1.147423   0.877319 H1   1   F02  0.0180  0.0000 ****
@<TRIPOS>BOND
    1     1     2 1
    2     1     3 1
    3     1     4 1
    4     4     5 1
    5     5     6 1
    6     5     7 1
    7     5     8 1
    8     8     9 1
    9     8    10 1
   10     8    11 1
   11    11    12 1
   12    12    13 1
   13    12    14 1
   14    12    15 1
   15    15    16 1
   16    15    17 1
   17    15    18 1
   18    18    19 1
   19    19    20 1
   20    19    21 1
@<TRIPOS>SUBSTRUCTURE
      1 F02               1 ****               0 ****  ****
@<TRIPOS>HEADTAIL
C1 1
C7 1
@<TRIPOS>RESIDUECONNECT
1 C1 C7 0 0 0 0
