#
# Generated by PyRED version JAN-2019
#     http://q4md-forcefieldtools.org
#
@<TRIPOS>MOLECULE
F02
    11    10     1     0     1
SMALL
USER_CHARGES
@<TRIPOS>ATOM
   1 C2    -2.255289   0.408707   0.131916 CT   1   F02  0.2406  0.0000 ****
   2 H4    -2.113527   0.985531   1.035238 H1   1   F02  0.0296  0.0000 ****
   3 H5    -2.368885   1.100451  -0.691068 H1   1   F02  0.0296  0.0000 ****
   4 O1    -1.104065  -0.396226  -0.092261 OS   1   F02 -0.5224  0.0000 ****
   5 C3     0.057992   0.237254  -0.222016 C    1   F02  0.9925  0.0000 ****
   6 O2     0.184328   1.425324  -0.151721 O    1   F02 -0.6449  0.0000 ****
   7 N1     1.056861  -0.637622  -0.453457 N    1   F02 -0.7592  0.0000 ****
   8 H6     0.833410  -1.604075  -0.389722 H    1   F02  0.3780  0.0000 ****
   9 C4     2.445168  -0.225631  -0.516886 CT   1   F02  0.1646  0.0000 ****
  10 H7     2.480299   0.733638  -1.012359 H1   1   F02  0.0458  0.0000 ****
  11 H8     2.966434  -0.936957  -1.147335 H1   1   F02  0.0458  0.0000 ****
@<TRIPOS>BOND
    1     1     2 1
    2     1     3 1
    3     1     4 1
    4     4     5 1
    5     5     6 1
    6     5     7 1
    7     7     8 1
    8     7     9 1
    9     9    10 1
   10     9    11 1
@<TRIPOS>SUBSTRUCTURE
      1 F02               1 ****               0 ****  ****
@<TRIPOS>HEADTAIL
C2 1
C4 1
@<TRIPOS>RESIDUECONNECT
1 C2 C4 0 0 0 0
