#
# Generated by PyRED version JAN-2019
#     http://q4md-forcefieldtools.org
#
@<TRIPOS>MOLECULE
F02
    16    15     1     0     1
SMALL
USER_CHARGES
@<TRIPOS>ATOM
   1 C2    -2.945767  -0.602311  -0.000001 CT   1   F02 -0.0282  0.0000 ****
   2 H4    -2.835613  -1.240536  -0.871403 HC   1   F02  0.0305  0.0000 ****
   3 H5    -2.835640  -1.240533   0.871406 HC   1   F02  0.0305  0.0000 ****
   4 C3    -1.815383   0.412541   0.000012 CT   1   F02  0.1097  0.0000 ****
   5 H6    -1.885423   1.056487   0.877505 H1   1   F02  0.0334  0.0000 ****
   6 H7    -1.885401   1.056486  -0.877482 H1   1   F02  0.0334  0.0000 ****
   7 O1    -0.597964  -0.269561   0.000029 OS   1   F02 -0.4258  0.0000 ****
   8 C4     0.531858   0.550275   0.000008 CT   1   F02  0.1364  0.0000 ****
   9 H8     0.525107   1.197827   0.877424 H1   1   F02  0.0175  0.0000 ****
  10 H9     0.525091   1.197805  -0.877423 H1   1   F02  0.0175  0.0000 ****
  11 C5     1.772517  -0.326396   0.000007 CT   1   F02  0.0262  0.0000 ****
  12 H10    1.736611  -0.974116  -0.871696 HC   1   F02  0.0174  0.0000 ****
  13 H11    1.736625  -0.974099   0.871724 HC   1   F02  0.0174  0.0000 ****
  14 C6     3.071029   0.481749  -0.000011 CT   1   F02 -0.0237  0.0000 ****
  15 H12    3.093950   1.133949   0.870692 HC   1   F02  0.0039  0.0000 ****
  16 H13    3.093936   1.133934  -0.870726 HC   1   F02  0.0039  0.0000 ****
@<TRIPOS>BOND
    1     1     2 1
    2     1     3 1
    3     1     4 1
    4     4     5 1
    5     4     6 1
    6     4     7 1
    7     7     8 1
    8     8     9 1
    9     8    10 1
   10     8    11 1
   11    11    12 1
   12    11    13 1
   13    11    14 1
   14    14    15 1
   15    14    16 1
@<TRIPOS>SUBSTRUCTURE
      1 F02               1 ****               0 ****  ****
@<TRIPOS>HEADTAIL
C2 1
C6 1
@<TRIPOS>RESIDUECONNECT
1 C2 C6 0 0 0 0
