#
# Generated by PyRED version JAN-2019
#     http://q4md-forcefieldtools.org
#
@<TRIPOS>MOLECULE
F02
     9     8     1     0     1
SMALL
USER_CHARGES
@<TRIPOS>ATOM
   1 C1     1.278506   0.523148   0.000010 CT   1   F02 -0.0466  0.0000 ****
   2 H1     1.280072   1.176040   0.870365 HC   1   F02  0.0156  0.0000 ****
   3 H2     1.280071   1.176064  -0.870326 HC   1   F02  0.0156  0.0000 ****
   4 C2     0.000003  -0.316657  -0.000002 CT   1   F02  0.0040  0.0000 ****
   5 H3     0.000003  -0.970725   0.870704 HC   1   F02  0.0133  0.0000 ****
   6 H4     0.000012  -0.970720  -0.870712 HC   1   F02  0.0133  0.0000 ****
   7 C3    -1.278503   0.523145  -0.000011 CT   1   F02 -0.0466  0.0000 ****
   8 H5    -1.280068   1.176064   0.870323 HC   1   F02  0.0157  0.0000 ****
   9 H6    -1.280070   1.176041  -0.870362 HC   1   F02  0.0157  0.0000 ****
@<TRIPOS>BOND
    1     1     2 1
    2     1     3 1
    3     1     4 1
    4     4     5 1
    5     4     6 1
    6     4     7 1
    7     7     8 1
    8     7     9 1
@<TRIPOS>SUBSTRUCTURE
      1 F02               1 ****               0 ****  ****
@<TRIPOS>HEADTAIL
C3 1
C1 1
@<TRIPOS>RESIDUECONNECT
1 C3 C1 0 0 0 0
