#
# Generated by PyRED version JAN-2019
#     http://q4md-forcefieldtools.org
#
@<TRIPOS>MOLECULE
F02
    18    18     1     0     1
SMALL
USER_CHARGES
@<TRIPOS>ATOM
   1 N1    -1.816269  -0.673375   0.331623 NT   1   F02 -0.7122  0.0000 ****
   2 H1    -1.737505  -1.561770   0.788135 H    1   F02  0.3673  0.0000 ****
   3 C1    -0.628656  -0.416470  -0.450933 CX   1   F02  0.0646  0.0000 ****
   4 H2    -0.545390  -0.987080  -1.373710 H1   1   F02  0.0529  0.0000 ****
   5 C2     0.628649  -0.416479   0.450932 CX   1   F02  0.0686  0.0000 ****
   6 H3     0.545379  -0.987092   1.373707 H1   1   F02  0.0523  0.0000 ****
   7 C3     0.495842   1.113705   0.596202 C    1   F02  0.4261  0.0000 ****
   8 O1     0.937431   1.926204   1.321308 O    1   F02 -0.4331  0.0000 ****
   9 C4    -0.495830   1.113714  -0.596197 C    1   F02  0.4420  0.0000 ****
  10 O2    -0.937405   1.926222  -1.321302 O    1   F02 -0.4377  0.0000 ****
  11 N2     1.816260  -0.673389  -0.331625 NT   1   F02 -0.7158  0.0000 ****
  12 H4     1.737497  -1.561788  -0.788129 H    1   F02  0.3681  0.0000 ****
  13 C5    -3.067410  -0.603941  -0.411600 CT   1   F02  0.1284  0.0000 ****
  14 H5    -3.086324  -1.322979  -1.233778 H1   1   F02  0.0495  0.0000 ****
  15 H6    -3.141808   0.380675  -0.855826 H1   1   F02  0.0495  0.0000 ****
  16 C6     3.067401  -0.603941   0.411596 CT   1   F02  0.1239  0.0000 ****
  17 H7     3.086319  -1.322965   1.233785 H1   1   F02  0.0528  0.0000 ****
  18 H8     3.141796   0.380684   0.855806 H1   1   F02  0.0528  0.0000 ****
@<TRIPOS>BOND
    1     1     2 1
    2     1     3 1
    3     1    13 1
    4     3     4 1
    5     3     5 1
    6     3     9 1
    7     5     6 1
    8     5     7 1
    9     5    11 1
   10     7     8 1
   11     7     9 1
   12     9    10 1
   13    11    12 1
   14    11    16 1
   15    13    14 1
   16    13    15 1
   17    16    17 1
   18    16    18 1
@<TRIPOS>SUBSTRUCTURE
      1 F02               1 ****               0 ****  ****
@<TRIPOS>HEADTAIL
C5 1
C6 1
@<TRIPOS>RESIDUECONNECT
1 C5 C6 0 0 0 0
