#
# Generated by PyRED version JAN-2019
#     http://q4md-forcefieldtools.org
#
@<TRIPOS>MOLECULE
F02
    12    11     1     0     1
SMALL
USER_CHARGES
@<TRIPOS>ATOM
   1 N1     1.130205  -0.558540   0.000402 N2   1   F02 -0.2501  0.0000 ****
   2 H1     1.049217  -1.545267  -0.109980 H    1   F02  0.2590  0.0000 ****
   3 C1    -0.000001   0.165615  -0.000013 C    1   F02  0.0962  0.0000 ****
   4 S1     0.000015   1.851596   0.000013 S    1   F02 -0.4495  0.0000 ****
   5 N2    -1.130214  -0.558530  -0.000446 N2   1   F02 -0.2501  0.0000 ****
   6 H2    -1.049235  -1.545261   0.109899 H    1   F02  0.2590  0.0000 ****
   7 C2    -2.476068  -0.007522   0.062730 CT   1   F02  0.0707  0.0000 ****
   8 H3    -2.602305   0.698198  -0.745561 H1   1   F02  0.0485  0.0000 ****
   9 H4    -2.607131   0.538353   0.989102 H1   1   F02  0.0485  0.0000 ****
  10 C3     2.476061  -0.007536  -0.062765 CT   1   F02  0.0708  0.0000 ****
  11 H5     2.602271   0.698226   0.745494 H1   1   F02  0.0485  0.0000 ****
  12 H6     2.607154   0.538291  -0.989162 H1   1   F02  0.0485  0.0000 ****
@<TRIPOS>BOND
    1     1     2 1
    2     1     3 1
    3     1    10 1
    4     3     4 1
    5     3     5 1
    6     5     6 1
    7     5     7 1
    8     7     8 1
    9     7     9 1
   10    10    11 1
   11    10    12 1
@<TRIPOS>SUBSTRUCTURE
      1 F02               1 ****               0 ****  ****
@<TRIPOS>HEADTAIL
C2 1
C3 1
@<TRIPOS>RESIDUECONNECT
1 C2 C3 0 0 0 0
