#
# Generated by PyRED version JAN-2019
#     http://q4md-forcefieldtools.org
#
@<TRIPOS>MOLECULE
F02
    12    11     1     0     1
SMALL
USER_CHARGES
@<TRIPOS>ATOM
   1 C1     1.884461   0.549501   0.000001 CT   1   F02 -0.0317  0.0000 ****
   2 H1     1.841553   1.200997   0.870318 HC   1   F02  0.0085  0.0000 ****
   3 H2     1.841549   1.200992  -0.870319 HC   1   F02  0.0085  0.0000 ****
   4 C2     0.666143  -0.375705   0.000003 CT   1   F02  0.0018  0.0000 ****
   5 H3     0.711684  -1.028034  -0.870690 HC   1   F02  0.0059  0.0000 ****
   6 H4     0.711684  -1.028025   0.870702 HC   1   F02  0.0059  0.0000 ****
   7 C4    -0.666143   0.375705   0.000002 CT   1   F02  0.0065  0.0000 ****
   8 H5    -0.711685   1.028033   0.870696 HC   1   F02  0.0053  0.0000 ****
   9 H6    -0.711683   1.028026  -0.870696 HC   1   F02  0.0053  0.0000 ****
  10 C5    -1.884461  -0.549501   0.000001 CT   1   F02 -0.0332  0.0000 ****
  11 H7    -1.841550  -1.200998  -0.870315 HC   1   F02  0.0086  0.0000 ****
  12 H8    -1.841553  -1.200991   0.870322 HC   1   F02  0.0086  0.0000 ****
@<TRIPOS>BOND
    1     1     2 1
    2     1     3 1
    3     1     4 1
    4     4     5 1
    5     4     6 1
    6     4     7 1
    7     7     8 1
    8     7     9 1
    9     7    10 1
   10    10    11 1
   11    10    12 1
@<TRIPOS>SUBSTRUCTURE
      1 F02               1 ****               0 ****  ****
@<TRIPOS>HEADTAIL
C1 1
C5 1
@<TRIPOS>RESIDUECONNECT
1 C1 C5 0 0 0 0
