#
# Generated by PyRED version JAN-2019
#     http://q4md-forcefieldtools.org
#
@<TRIPOS>MOLECULE
F02
    15    14     1     0     1
SMALL
USER_CHARGES
@<TRIPOS>ATOM
   1 C1     2.556554   0.494632  -0.000001 CT   1   F02 -0.0283  0.0000 ****
   2 H1     2.558189   1.147550   0.870317 HC   1   F02  0.0086  0.0000 ****
   3 H2     2.558188   1.147549  -0.870320 HC   1   F02  0.0086  0.0000 ****
   4 C2     1.278006  -0.345366   0.000001 CT   1   F02  0.0035  0.0000 ****
   5 H3     1.278997  -0.999276  -0.870669 HC   1   F02  0.0015  0.0000 ****
   6 H4     1.278999  -0.999276   0.870671 HC   1   F02  0.0015  0.0000 ****
   7 C4     0.000000   0.495321   0.000002 CT   1   F02  0.0148  0.0000 ****
   8 H5     0.000000   1.149078   0.870688 HC   1   F02 -0.0028  0.0000 ****
   9 H6    -0.000001   1.149078  -0.870684 HC   1   F02 -0.0028  0.0000 ****
  10 C5    -1.278006  -0.345366   0.000004 CT   1   F02  0.0035  0.0000 ****
  11 H7    -1.278996  -0.999277  -0.870665 HC   1   F02  0.0015  0.0000 ****
  12 H8    -1.278998  -0.999275   0.870674 HC   1   F02  0.0015  0.0000 ****
  13 C6    -2.556554   0.494632  -0.000000 CT   1   F02 -0.0283  0.0000 ****
  14 H9    -2.558191   1.147549   0.870318 HC   1   F02  0.0086  0.0000 ****
  15 H10   -2.558188   1.147550  -0.870318 HC   1   F02  0.0086  0.0000 ****
@<TRIPOS>BOND
    1     1     2 1
    2     1     3 1
    3     1     4 1
    4     4     5 1
    5     4     6 1
    6     4     7 1
    7     7     8 1
    8     7     9 1
    9     7    10 1
   10    10    11 1
   11    10    12 1
   12    10    13 1
   13    13    14 1
   14    13    15 1
@<TRIPOS>SUBSTRUCTURE
      1 F02               1 ****               0 ****  ****
@<TRIPOS>HEADTAIL
C1 1
C6 1
@<TRIPOS>RESIDUECONNECT
1 C1 C6 0 0 0 0
