#
# Generated by PyRED version JAN-2019
#     http://q4md-forcefieldtools.org
#
@<TRIPOS>MOLECULE
F02
    18    17     1     0     1
SMALL
USER_CHARGES
@<TRIPOS>ATOM
   1 C1     3.177237  -0.541384   0.000000 CT   1   F02 -0.0392  0.0000 ****
   2 H1     3.153960  -1.193894  -0.870314 HC   1   F02  0.0118  0.0000 ****
   3 H2     3.153961  -1.193893   0.870315 HC   1   F02  0.0118  0.0000 ****
   4 C2     1.931662   0.346780  -0.000001 CT   1   F02  0.0163  0.0000 ****
   5 H3     1.957636   1.000190   0.870667 HC   1   F02  0.0005  0.0000 ****
   6 H4     1.957634   1.000188  -0.870671 HC   1   F02  0.0005  0.0000 ****
   7 C4     0.622514  -0.444524   0.000001 CT   1   F02  0.0107  0.0000 ****
   8 H5     0.597590  -1.097804  -0.870659 HC   1   F02 -0.0068  0.0000 ****
   9 H6     0.597593  -1.097803   0.870662 HC   1   F02 -0.0068  0.0000 ****
  10 C5    -0.622514   0.444524   0.000005 CT   1   F02  0.0157  0.0000 ****
  11 H7    -0.597590   1.097803   0.870666 HC   1   F02 -0.0071  0.0000 ****
  12 H8    -0.597590   1.097804  -0.870654 HC   1   F02 -0.0071  0.0000 ****
  13 C6    -1.931662  -0.346780   0.000002 CT   1   F02  0.0101  0.0000 ****
  14 H9    -1.957633  -1.000190  -0.870667 HC   1   F02  0.0018  0.0000 ****
  15 H10   -1.957637  -1.000189   0.870671 HC   1   F02  0.0018  0.0000 ****
  16 C7    -3.177238   0.541384  -0.000002 CT   1   F02 -0.0368  0.0000 ****
  17 H11   -3.153963   1.193894   0.870312 HC   1   F02  0.0114  0.0000 ****
  18 H12   -3.153960   1.193893  -0.870317 HC   1   F02  0.0114  0.0000 ****
@<TRIPOS>BOND
    1     1     2 1
    2     1     3 1
    3     1     4 1
    4     4     5 1
    5     4     6 1
    6     4     7 1
    7     7     8 1
    8     7     9 1
    9     7    10 1
   10    10    11 1
   11    10    12 1
   12    10    13 1
   13    13    14 1
   14    13    15 1
   15    13    16 1
   16    16    17 1
   17    16    18 1
@<TRIPOS>SUBSTRUCTURE
      1 F02               1 ****               0 ****  ****
@<TRIPOS>HEADTAIL
C1 1
C7 1
@<TRIPOS>RESIDUECONNECT
1 C1 C7 0 0 0 0
