#
# Generated by PyRED version JAN-2019
#     http://q4md-forcefieldtools.org
#
@<TRIPOS>MOLECULE
F02
    21    20     1     0     1
SMALL
USER_CHARGES
@<TRIPOS>ATOM
   1 C1     3.834621   0.478430   0.000006 CT   1   F02 -0.0403  0.0000 ****
   2 H1     3.836268   1.131359   0.870318 HC   1   F02  0.0117  0.0000 ****
   3 H2     3.836263   1.131353  -0.870309 HC   1   F02  0.0117  0.0000 ****
   4 C2     2.556050  -0.361542   0.000003 CT   1   F02  0.0129  0.0000 ****
   5 H3     2.557075  -1.015478  -0.870659 HC   1   F02  0.0023  0.0000 ****
   6 H4     2.557072  -1.015465   0.870673 HC   1   F02  0.0023  0.0000 ****
   7 C4     1.278041   0.479133  -0.000002 CT   1   F02  0.0167  0.0000 ****
   8 H5     1.278093   1.132907   0.870654 HC   1   F02 -0.0066  0.0000 ****
   9 H6     1.278096   1.132897  -0.870666 HC   1   F02 -0.0066  0.0000 ****
  10 C5     0.000000  -0.361755  -0.000004 CT   1   F02  0.0157  0.0000 ****
  11 H7     0.000001  -1.015511  -0.870635 HC   1   F02 -0.0118  0.0000 ****
  12 H8     0.000000  -1.015503   0.870633 HC   1   F02 -0.0118  0.0000 ****
  13 C6    -1.278040   0.479133  -0.000002 CT   1   F02  0.0167  0.0000 ****
  14 H9    -1.278093   1.132906   0.870655 HC   1   F02 -0.0066  0.0000 ****
  15 H10   -1.278095   1.132897  -0.870665 HC   1   F02 -0.0066  0.0000 ****
  16 C7    -2.556049  -0.361542   0.000001 CT   1   F02  0.0129  0.0000 ****
  17 H11   -2.557074  -1.015476  -0.870662 HC   1   F02  0.0023  0.0000 ****
  18 H12   -2.557073  -1.015468   0.870669 HC   1   F02  0.0023  0.0000 ****
  19 C8    -3.834621   0.478430  -0.000002 CT   1   F02 -0.0404  0.0000 ****
  20 H13   -3.836265   1.131359   0.870309 HC   1   F02  0.0116  0.0000 ****
  21 H14   -3.836267   1.131352  -0.870318 HC   1   F02  0.0116  0.0000 ****
@<TRIPOS>BOND
    1     1     2 1
    2     1     3 1
    3     1     4 1
    4     4     5 1
    5     4     6 1
    6     4     7 1
    7     7     8 1
    8     7     9 1
    9     7    10 1
   10    10    11 1
   11    10    12 1
   12    10    13 1
   13    13    14 1
   14    13    15 1
   15    13    16 1
   16    16    17 1
   17    16    18 1
   18    16    19 1
   19    19    20 1
   20    19    21 1
@<TRIPOS>SUBSTRUCTURE
      1 F02               1 ****               0 ****  ****
@<TRIPOS>HEADTAIL
C1 1
C8 1
@<TRIPOS>RESIDUECONNECT
1 C1 C8 0 0 0 0
