#
# Generated by PyRED version JAN-2019
#     http://q4md-forcefieldtools.org
#
@<TRIPOS>MOLECULE
F02
    24    23     1     0     1
SMALL
USER_CHARGES
@<TRIPOS>ATOM
   1 C1     4.462063   0.528984   0.000009 CT   1   F02 -0.0327  0.0000 ****
   2 H1     4.447750   1.181756   0.870323 HC   1   F02  0.0099  0.0000 ****
   3 H2     4.447742   1.181758  -0.870302 HC   1   F02  0.0099  0.0000 ****
   4 C2     3.204406  -0.341992   0.000004 CT   1   F02  0.0029  0.0000 ****
   5 H3     3.221423  -0.995709  -0.870658 HC   1   F02  0.0040  0.0000 ****
   6 H4     3.221419  -0.995700   0.870672 HC   1   F02  0.0040  0.0000 ****
   7 C4     1.906218   0.467174  -0.000004 CT   1   F02  0.0126  0.0000 ****
   8 H5     1.890291   1.120757   0.870649 HC   1   F02 -0.0033  0.0000 ****
   9 H6     1.890295   1.120750  -0.870664 HC   1   F02 -0.0033  0.0000 ****
  10 C5     0.649104  -0.404697  -0.000003 CT   1   F02  0.0126  0.0000 ****
  11 H7     0.665116  -1.058269  -0.870635 HC   1   F02 -0.0085  0.0000 ****
  12 H8     0.665117  -1.058265   0.870632 HC   1   F02 -0.0085  0.0000 ****
  13 C6    -0.649104   0.404695  -0.000000 CT   1   F02  0.0156  0.0000 ****
  14 H9    -0.665115   1.058268   0.870632 HC   1   F02 -0.0090  0.0000 ****
  15 H10   -0.665117   1.058263  -0.870635 HC   1   F02 -0.0090  0.0000 ****
  16 C7    -1.906218  -0.467175   0.000003 CT   1   F02  0.0110  0.0000 ****
  17 H11   -1.890293  -1.120758  -0.870652 HC   1   F02 -0.0030  0.0000 ****
  18 H12   -1.890293  -1.120752   0.870661 HC   1   F02 -0.0030  0.0000 ****
  19 C8    -3.204406   0.341992  -0.000002 CT   1   F02  0.0040  0.0000 ****
  20 H13   -3.221421   0.995707   0.870661 HC   1   F02  0.0042  0.0000 ****
  21 H14   -3.221421   0.995703  -0.870668 HC   1   F02  0.0042  0.0000 ****
  22 C9    -4.462064  -0.528983   0.000003 CT   1   F02 -0.0374  0.0000 ****
  23 H15   -4.447745  -1.181759  -0.870307 HC   1   F02  0.0114  0.0000 ****
  24 H16   -4.447747  -1.181753   0.870318 HC   1   F02  0.0114  0.0000 ****
@<TRIPOS>BOND
    1     1     2 1
    2     1     3 1
    3     1     4 1
    4     4     5 1
    5     4     6 1
    6     4     7 1
    7     7     8 1
    8     7     9 1
    9     7    10 1
   10    10    11 1
   11    10    12 1
   12    10    13 1
   13    13    14 1
   14    13    15 1
   15    13    16 1
   16    16    17 1
   17    16    18 1
   18    16    19 1
   19    19    20 1
   20    19    21 1
   21    19    22 1
   22    22    23 1
   23    22    24 1
@<TRIPOS>SUBSTRUCTURE
      1 F02               1 ****               0 ****  ****
@<TRIPOS>HEADTAIL
C1 1
C9 1
@<TRIPOS>RESIDUECONNECT
1 C1 C9 0 0 0 0
