#
# Generated by PyRED version JAN-2019
#     http://q4md-forcefieldtools.org
#
@<TRIPOS>MOLECULE
F02
    27    26     1     0     1
SMALL
USER_CHARGES
@<TRIPOS>ATOM
   1 C1    -5.112700   0.467996   0.000016 CT   1   F02 -0.0354  0.0000 ****
   2 H1    -5.114346   1.120931  -0.870294 HC   1   F02  0.0108  0.0000 ****
   3 H2    -5.114330   1.120918   0.870335 HC   1   F02  0.0108  0.0000 ****
   4 C2    -3.834130  -0.371973  -0.000002 CT   1   F02  0.0060  0.0000 ****
   5 H3    -3.835156  -1.025914   0.870659 HC   1   F02  0.0027  0.0000 ****
   6 H4    -3.835171  -1.025899  -0.870674 HC   1   F02  0.0027  0.0000 ****
   7 C4    -2.556108   0.468684  -0.000006 CT   1   F02  0.0167  0.0000 ****
   8 H5    -2.556179   1.122467  -0.870659 HC   1   F02 -0.0059  0.0000 ****
   9 H6    -2.556167   1.122454   0.870656 HC   1   F02 -0.0059  0.0000 ****
  10 C5    -1.278046  -0.372185  -0.000020 CT   1   F02  0.0139  0.0000 ****
  11 H7    -1.278075  -1.025965   0.870605 HC   1   F02 -0.0095  0.0000 ****
  12 H8    -1.278083  -1.025948  -0.870659 HC   1   F02 -0.0095  0.0000 ****
  13 C6     0.000000   0.468692  -0.000017 CT   1   F02  0.0297  0.0000 ****
  14 H9    -0.000001   1.122478  -0.870647 HC   1   F02 -0.0122  0.0000 ****
  15 H10    0.000001   1.122467   0.870621 HC   1   F02 -0.0122  0.0000 ****
  16 C7     1.278046  -0.372185  -0.000023 CT   1   F02  0.0139  0.0000 ****
  17 H11    1.278077  -1.025965   0.870602 HC   1   F02 -0.0095  0.0000 ****
  18 H12    1.278081  -1.025948  -0.870661 HC   1   F02 -0.0095  0.0000 ****
  19 C8     2.556108   0.468684  -0.000012 CT   1   F02  0.0167  0.0000 ****
  20 H13    2.556179   1.122465  -0.870666 HC   1   F02 -0.0059  0.0000 ****
  21 H14    2.556167   1.122456   0.870649 HC   1   F02 -0.0059  0.0000 ****
  22 C9     3.834130  -0.371973  -0.000007 CT   1   F02  0.0060  0.0000 ****
  23 H15    3.835154  -1.025914   0.870654 HC   1   F02  0.0027  0.0000 ****
  24 H16    3.835173  -1.025898  -0.870679 HC   1   F02  0.0027  0.0000 ****
  25 C10    5.112700   0.467997   0.000015 CT   1   F02 -0.0355  0.0000 ****
  26 H17    5.114350   1.120930  -0.870295 HC   1   F02  0.0108  0.0000 ****
  27 H18    5.114327   1.120919   0.870334 HC   1   F02  0.0108  0.0000 ****
@<TRIPOS>BOND
    1     1     2 1
    2     1     3 1
    3     1     4 1
    4     4     5 1
    5     4     6 1
    6     4     7 1
    7     7     8 1
    8     7     9 1
    9     7    10 1
   10    10    11 1
   11    10    12 1
   12    10    13 1
   13    13    14 1
   14    13    15 1
   15    13    16 1
   16    16    17 1
   17    16    18 1
   18    16    19 1
   19    19    20 1
   20    19    21 1
   21    19    22 1
   22    22    23 1
   23    22    24 1
   24    22    25 1
   25    25    26 1
   26    25    27 1
@<TRIPOS>SUBSTRUCTURE
      1 F02               1 ****               0 ****  ****
@<TRIPOS>HEADTAIL
C10 1
C1 1
@<TRIPOS>RESIDUECONNECT
1 C10 C1 0 0 0 0
