#
# Generated by PyRED version JAN-2019
#     http://q4md-forcefieldtools.org
#
@<TRIPOS>MOLECULE
F02
    30    29     1     0     1
SMALL
USER_CHARGES
@<TRIPOS>ATOM
   1 C1    -5.743767   0.517577   0.000005 CT   1   F02 -0.0370  0.0000 ****
   2 H1    -5.734294   1.170441  -0.870308 HC   1   F02  0.0112  0.0000 ****
   3 H2    -5.734290   1.170436   0.870321 HC   1   F02  0.0112  0.0000 ****
   4 C2    -4.479677  -0.344032  -0.000001 CT   1   F02  0.0068  0.0000 ****
   5 H3    -4.491840  -0.997856   0.870664 HC   1   F02  0.0030  0.0000 ****
   6 H4    -4.491845  -0.997852  -0.870668 HC   1   F02  0.0030  0.0000 ****
   7 C4    -3.187530   0.474749  -0.000002 CT   1   F02  0.0181  0.0000 ****
   8 H5    -3.176470   1.128434  -0.870658 HC   1   F02 -0.0063  0.0000 ****
   9 H6    -3.176467   1.128432   0.870655 HC   1   F02 -0.0063  0.0000 ****
  10 C5    -1.923962  -0.387747  -0.000005 CT   1   F02  0.0110  0.0000 ****
  11 H7    -1.935124  -1.041427   0.870625 HC   1   F02 -0.0096  0.0000 ****
  12 H8    -1.935126  -1.041425  -0.870636 HC   1   F02 -0.0096  0.0000 ****
  13 C6    -0.631782   0.431247  -0.000005 CT   1   F02  0.0268  0.0000 ****
  14 H9    -0.620660   1.084937  -0.870636 HC   1   F02 -0.0106  0.0000 ****
  15 H10   -0.620660   1.084937   0.870627 HC   1   F02 -0.0106  0.0000 ****
  16 C7     0.631782  -0.431247  -0.000005 CT   1   F02  0.0201  0.0000 ****
  17 H11    0.620659  -1.084937   0.870626 HC   1   F02 -0.0093  0.0000 ****
  18 H12    0.620660  -1.084937  -0.870637 HC   1   F02 -0.0093  0.0000 ****
  19 C8     1.923962   0.387747  -0.000004 CT   1   F02  0.0167  0.0000 ****
  20 H13    1.935126   1.041425  -0.870635 HC   1   F02 -0.0104  0.0000 ****
  21 H14    1.935123   1.041427   0.870627 HC   1   F02 -0.0104  0.0000 ****
  22 C9     3.187530  -0.474749  -0.000001 CT   1   F02  0.0129  0.0000 ****
  23 H15    3.176467  -1.128432   0.870657 HC   1   F02 -0.0058  0.0000 ****
  24 H16    3.176470  -1.128435  -0.870656 HC   1   F02 -0.0058  0.0000 ****
  25 C10    4.479677   0.344032  -0.000000 CT   1   F02  0.0123  0.0000 ****
  26 H17    4.491844   0.997852  -0.870668 HC   1   F02  0.0019  0.0000 ****
  27 H18    4.491841   0.997856   0.870664 HC   1   F02  0.0019  0.0000 ****
  28 C11    5.743767  -0.517577   0.000004 CT   1   F02 -0.0389  0.0000 ****
  29 H19    5.734290  -1.170436   0.870320 HC   1   F02  0.0115  0.0000 ****
  30 H20    5.734294  -1.170441  -0.870308 HC   1   F02  0.0115  0.0000 ****
@<TRIPOS>BOND
    1     1     2 1
    2     1     3 1
    3     1     4 1
    4     4     5 1
    5     4     6 1
    6     4     7 1
    7     7     8 1
    8     7     9 1
    9     7    10 1
   10    10    11 1
   11    10    12 1
   12    10    13 1
   13    13    14 1
   14    13    15 1
   15    13    16 1
   16    16    17 1
   17    16    18 1
   18    16    19 1
   19    19    20 1
   20    19    21 1
   21    19    22 1
   22    22    23 1
   23    22    24 1
   24    22    25 1
   25    25    26 1
   26    25    27 1
   27    25    28 1
   28    28    29 1
   29    28    30 1
@<TRIPOS>SUBSTRUCTURE
      1 F02               1 ****               0 ****  ****
@<TRIPOS>HEADTAIL
C11 1
C1 1
@<TRIPOS>RESIDUECONNECT
1 C11 C1 0 0 0 0
