@<TRIPOS>MOLECULE
L1 
37		36		1
SMALL
USER_CHARGES

@<TRIPOS>ATOM
1   C1       4.20583   -0.70333   -0.00204 CT   1   L1  -0.0370  0.0000 ****
2   H1       4.18437   -1.35591   -0.87236 HC   1   L1   0.0112  0.0000 ****
3   H2       4.18436   -1.35590    0.86827 HC   1   L1   0.0112  0.0000 ****
4   C2       2.95778    0.18135   -0.00205 CT   1   L1   0.0068  0.0000 ****
5   H3       2.98194    0.83484    0.86862 HC   1   L1   0.0030  0.0000 ****
6   H4       2.98195    0.83484   -0.87272 HC   1   L1   0.0030  0.0000 ****
7   C3       1.65081   -0.61356   -0.00205 CT   1   L1   0.0181  0.0000 ****
8   H5       1.62775   -1.26693   -0.87271 HC   1   L1  -0.0063  0.0000 ****
9   H6       1.62774   -1.26693    0.86861 HC   1   L1  -0.0063  0.0000 ****
10  C4       0.40329    0.27200   -0.00205 CT   1   L1   0.0110  0.0000 ****
11  H7       0.42646    0.92536    0.86858 HC   1   L1  -0.0096  0.0000 ****
12  H8       0.42646    0.92536   -0.87268 HC   1   L1  -0.0096  0.0000 ****
13  C5      -0.90371   -0.52312   -0.00205 CT   1   L1   0.0268  0.0000 ****
14  H9      -0.92683   -1.17650   -0.87268 HC   1   L1  -0.0106  0.0000 ****
15  H10     -0.92683   -1.17650    0.86858 HC   1   L1  -0.0106  0.0000 ****
16  C6      -2.15122    0.36243   -0.00205 CT   1   L1   0.0201  0.0000 ****
17  H11     -2.12809    1.01581    0.86858 HC   1   L1  -0.0093  0.0000 ****
18  H12     -2.12809    1.01581   -0.87269 HC   1   L1  -0.0093  0.0000 ****
19  C7      -3.45822   -0.43269   -0.00205 CT   1   L1   0.0167  0.0000 ****
20  H13     -3.48139   -1.08606   -0.87268 HC   1   L1  -0.0104  0.0000 ****
21  H14     -3.48139   -1.08606    0.86858 HC   1   L1  -0.0104  0.0000 ****
22  C8      -4.70574    0.45286   -0.00205 CT   1   L1   0.0129  0.0000 ****
23  H15     -4.68267    1.10623    0.86861 HC   1   L1  -0.0058  0.0000 ****
24  H16     -4.68267    1.10624   -0.87270 HC   1   L1  -0.0058  0.0000 ****
25  C9      -6.01270   -0.34205   -0.00205 CT   1   L1   0.0123  0.0000 ****
26  H17     -6.03688   -0.99553   -0.87272 HC   1   L1   0.0019  0.0000 ****
27  H18     -6.03687   -0.99554    0.86862 HC   1   L1   0.0019  0.0000 ****
28  C10     -7.26076    0.54263   -0.00204 CT   1   L1  -0.0389  0.0000 ****
29  H19     -7.23929    1.19521    0.86827 HC   1   L1   0.0115  0.0000 ****
30  H20     -7.23929    1.19521   -0.87236 HC   1   L1   0.0115  0.0000 ****
31  C11      5.45179    0.20175   -0.00204 CT   1   L1  -0.1086  0.0000 ****
32  H21      5.14745    0.71595    0.90285 H1   1   L1   0.0315  0.0000 ****
33  H22      5.15263    0.80917   -0.84903 H1   1   L1   0.0315  0.0000 ****
34  S1       7.24462    0.17409    0.00179 S    1   L1   1.1306  0.0000 ****
35  O1       7.61955    1.57759    0.07759 O    1   L1  -0.6950  0.0000 ****
36  O2       7.60033   -0.59890    1.18326 O    1   L1  -0.6950  0.0000 ****
37  O3       7.60753   -0.46925   -1.25293 O    1   L1  -0.6950  0.0000 ****
@<TRIPOS>BOND
  1     1     2 1    
  2     1     3 1    
  3     1     4 1    
  4     4     5 1    
  5     4     6 1    
  6     4     7 1    
  7     7     8 1    
  8     7     9 1    
  9     7    10 1    
 10    10    11 1    
 11    10    12 1    
 12    10    13 1    
 13    13    14 1    
 14    13    15 1    
 15    13    16 1    
 16    16    17 1    
 17    16    18 1    
 18    16    19 1    
 19    19    20 1    
 20    19    21 1    
 21    19    22 1    
 22    22    23 1    
 23    22    24 1    
 24    22    25 1    
 25    25    26 1    
 26    25    27 1    
 27    25    28 1    
 28    28    29 1    
 29    28    30 1    
 30    31    32 1    
 31    31    33 1    
 32    31    34 1    
 33    34    35 1    
 34    34    36 1    
 35    34    37 1    
 36     1    31 1    
@<TRIPOS>SUBSTRUCTURE
   1 L1      1 ****    0 **** ****
@<TRIPOS>HEADTAIL
C10 1 
0  0 
@<TRIPOS>RESIDUECONNECT
1 C10 0  0 0 0 0
